##---------------INITIALIZATION-------------------------------

units          metal
dimension 	    3
boundary       p p p
atom_style 	atomic
newton 		on

##---------------ATOM DEFINITION------------------------------

read_data 	CNT_2_44_3.53.dat
Reading data file ...
  orthogonal box = (-19.6067 -19.6067 0.283386) to (19.6067 19.6067 383.427)
  reading atoms ...
  16224 atoms

##---------------FORCE FIELDS---------------------------------
#Set the formula(s) LAMMPS uses to compute pairwise interactions. In LAMMPS, pair potentials are defined between pairs #of atoms that are within a cutoff distance and the set of active interactions typically changes over time

pair_style 	airebo 3.0

#Specify the pairwise force field coefficients for one or more pairs of atom types. The number and meaning of the coefficients depends on the pair style.

pair_coeff     * * /ascldap/users/bcma/CH.airebo C
Reading airebo potential file /ascldap/users/bcma/CH.airebo with DATE: 2011-10-25

##---------------SETTINGS-------------------------------------

timestep 	0.0005
variable   ts equal 0.0005

##---------------COMPUTES-----stresses in 3 directions and min/max on x and z atom coordinates --------------------------

compute    1 all stress/atom NULL
compute    2 all reduce sum c_1[1] c_1[2] c_1[3]
compute    3 all property/atom x y # true atoms position
compute    4 all reduce min c_3[1] c_3[2]
compute    5 all reduce max c_3[1] c_3[2]

variable   Lx equal lx
variable   Ly equal ly
variable   Lz equal lz
variable   Vol equal vol
variable   thickn equal 3.4
#making the damp parameter timestep dependent
fix		1 all npt temp 300 300 0.05 iso 0 0 0.05 #$(100.0*dt)x 0 0 0.5 y 0 0 0.5 z 0 0 0.5
thermo 	2000
##---------------RELAXATION--------------------------------------

run            50000
  update every 1 steps, delay 10 steps, check yes
Step          Temp          E_pair         E_mol          TotEng         Press          Volume
0   0             -120260.42      0             -120260.42     -28858.725      589156.39
Averages over the last 13 of 26 rows, steps 26000 to 50000:
Temp E_pair E_mol TotEng Press Volume
299.677 -119927 0 -119298 68.3346 559468
Loop time of 106.459 on 368 procs for 50000 steps with 16224 atoms

##---------------DEFORMATION--------------------------------------
unfix              1
reset_timestep     0
fix		1 all npt temp 300 300 0.05 x 0 0 0.05 y 0 0 0.05 #$(100.0*dt)
fix        2 all ave/time 1 100 100 c_2[1] c_2[2] c_2[3]
fix        3 all ave/time 1 100 100 v_Lx v_Ly v_Lz v_Vol
fix        4 all  ave/time 1 100 100 c_4[1] c_4[2]
fix        5 all ave/time 1 100 100 c_5[1] c_5[2]
variable   srate equal 1.0e9
variable   srate1 equal "v_srate / 1.0e12"
fix		6 all deform 1 z erate 0.001 units box remap x
run            100
Step          Temp          E_pair         E_mol          TotEng         Press          Volume
0   303.2023      -119929.4       0             -119293.59      227.67725      559049.77
Loop time of 0.30782 on 368 procs for 100 steps with 16224 atoms

##---------------THERMO-OUTPUTS--------------------------------------
variable cntdiameter equal ((f_5[1]-f_4[1])+(f_5[2]-f_4[2]))/2
#actual volume of cnt
variable   CorVol equal 3.14*v_cntdiameter*v_thickn*f_3[3]
#convertion factor of stress from barr to GPA
variable   ConvoFac equal 1/1.0e4
variable   sigmaxx equal f_2[1]*v_ConvoFac/v_CorVol
variable   sigmayy equal f_2[2]*v_ConvoFac/v_CorVol
variable   sigmazz equal f_2[3]*v_ConvoFac/v_CorVol
variable   StrainPerTs equal v_srate1*v_ts
variable   strain equal v_StrainPerTs*step
thermo 	100
thermo_style custom step temp v_strain v_sigmaxx v_sigmayy v_sigmazz pe ke lx ly lz vol v_cntdiameter v_CorVol
thermo_modify lost warn

##---------------DEFORMATION--------------------------------------
dump           1 all atom 5000 /ascldap/users/bcma/4thCNTRun/CNT_2_44_3.53/CNT_2_44_3.53.lammpstrj
run            1000000
Step          Temp         v_strain      v_sigmaxx      v_sigmayy      v_sigmazz        PotEng         KinEng           Lx             Ly             Lz           Volume     v_cntdiameter     v_CorVol
100   298.80975      5e-05         -0.0088088437  -0.009961581   -2.0831446     -119926.27      626.60025      38.461733      38.474881      376.52163      557180.72      35.764301      143759.74
Averages over the last 5001 of 10001 rows, steps 500100 to 1000100:
Temp v_strain v_sigmaxx v_sigmayy v_sigmazz PotEng KinEng Lx Ly Lz Volume v_cntdiameter v_CorVol
299.952 0.37505 2.41585e-05 2.73123e-05 0.00117173 -119567 628.996 41.0727 23.7375 517.717 504758 32.9113 181905
Loop time of 6555.4 on 368 procs for 1000000 steps with 16224 atoms
