LAMMPS (4 May 2022)
#uniaxial tensile test of CNT_25_14_2.679

##---------------INITIALIZATION-------------------------------

units          metal
dimension 	    3
boundary       p p p
atom_style 	atomic
newton 		on

##---------------ATOM DEFINITION------------------------------

read_data 	CNT_25_14_2.679.dat
Reading data file ...
  orthogonal box = (-50 -50 -0.145035) to (50 50 436.569)
  reading atoms ...
  14052 atoms

##---------------FORCE FIELDS---------------------------------
#Set the formula(s) LAMMPS uses to compute pairwise interactions. In LAMMPS, pair potentials are defined between pairs #of atoms that are within a cutoff distance and the set of active interactions typically changes over time

pair_style 	airebo 3.0

#Specify the pairwise force field coefficients for one or more pairs of atom types. The number and meaning of the coefficients depends on the pair style.

pair_coeff     * * /ascldap/users/bcma/CH.airebo C
Reading airebo potential file /ascldap/users/bcma/CH.airebo with DATE: 2011-10-25

##---------------SETTINGS-------------------------------------

timestep 	0.0005
variable   ts equal 0.0005

##---------------COMPUTES-----stresses in 3 directions and min/max on x and z atom coordinates --------------------------

compute    1 all stress/atom NULL
compute    2 all reduce sum c_1[1] c_1[2] c_1[3]
compute    3 all property/atom x y # true atoms position
compute    4 all reduce min c_3[1] c_3[2]
compute    5 all reduce max c_3[1] c_3[2]

variable   Lx equal lx
variable   Ly equal ly
variable   Lz equal lz
variable   Vol equal vol
variable   thickn equal 3.4
#making the damp parameter timestep dependent
fix		1 all npt temp 300 300 0.05 iso 0 0 0.05 #$(100.0*dt)x 0 0 0.5 y 0 0 0.5 z 0 0 0.5
thermo 	2000
##---------------RELAXATION--------------------------------------

run            50000
  update every 1 steps, delay 10 steps, check yes
Step          Temp          E_pair         E_mol          TotEng         Press          Volume
0   0             -104058.65      0             -104058.65     -3286.1745      4367140.4
Averages over the last 13 of 26 rows, steps 26000 to 50000:
Temp E_pair E_mol TotEng Press Volume
300.602 -103731 0 -103185 15.4231 4.18039e+06
Loop time of 151.558 on 320 procs for 50000 steps with 14052 atoms

##---------------DEFORMATION--------------------------------------
unfix              1
reset_timestep     0
fix		1 all npt temp 300 300 0.05 x 0 0 0.05 y 0 0 0.05 #$(100.0*dt)
fix        2 all ave/time 1 100 100 c_2[1] c_2[2] c_2[3]
fix        3 all ave/time 1 100 100 v_Lx v_Ly v_Lz v_Vol
fix        4 all  ave/time 1 100 100 c_4[1] c_4[2]
fix        5 all ave/time 1 100 100 c_5[1] c_5[2]
variable   srate equal 1.0e9
variable   srate1 equal "v_srate / 1.0e12"
fix		6 all deform 1 z erate 0.001 units box remap x
run            100
Step          Temp          E_pair         E_mol          TotEng         Press          Volume
0   300.40487     -103727.72      0             -103182.12     -21.611049      4175692.8
Loop time of 0.387145 on 320 procs for 100 steps with 14052 atoms

##---------------THERMO-OUTPUTS--------------------------------------
variable cntdiameter equal ((f_5[1]-f_4[1])+(f_5[2]-f_4[2]))/2
#actual volume of cnt
variable   CorVol equal 3.14*v_cntdiameter*v_thickn*f_3[3]
#convertion factor of stress from barr to GPA
variable   ConvoFac equal 1/1.0e4
variable   sigmaxx equal f_2[1]*v_ConvoFac/v_CorVol
variable   sigmayy equal f_2[2]*v_ConvoFac/v_CorVol
variable   sigmazz equal f_2[3]*v_ConvoFac/v_CorVol
variable   StrainPerTs equal v_srate1*v_ts
variable   strain equal v_StrainPerTs*step
thermo 	100
thermo_style custom step temp v_strain v_sigmaxx v_sigmayy v_sigmazz pe ke lx ly lz vol v_cntdiameter v_CorVol
thermo_modify lost warn

##---------------DEFORMATION--------------------------------------
dump           1 all atom 5000 /ascldap/users/bcma/CNT_25_14_2.679/CNT_25_14_2.679.lammpstrj
run            1000000
Step          Temp         v_strain      v_sigmaxx      v_sigmayy      v_sigmazz        PotEng         KinEng           Lx             Ly             Lz           Volume     v_cntdiameter     v_CorVol
100   301.76616      5e-05         -0.0050524866  -0.006876204   -0.43711133    -103732.39      548.07805      98.417822      98.539092      430.25837      4172646.9      27.49311       126284.72
Averages over the last 5001 of 10001 rows, steps 500100 to 1000100:
Temp v_strain v_sigmaxx v_sigmayy v_sigmazz PotEng KinEng Lx Ly Lz Volume v_cntdiameter v_CorVol
300.029 0.37505 2.54695e-05 2.61267e-05 0.00151173 -103119 544.923 28.0594 23.0832 591.605 383175 26.0274 164387
Loop time of 5856.81 on 320 procs for 1000000 steps with 14052 atoms
